<?xml version="1.0" encoding="UTF-8"?>

<!-- generated on 2022-10-26 22:17:47 by Eclipse SUMO netconvert Version 1.12.0
<configuration xmlns:xsi="http://www.w3.org/2001/XMLSchema-instance" xsi:noNamespaceSchemaLocation="http://sumo.dlr.de/xsd/netconvertConfiguration.xsd">

    <input>
        <osm-files value="map.osm"/>
    </input>

    <output>
        <output-file value="map.net.xml"/>
    </output>

    <projection>
        <proj.utm value="true"/>
    </projection>

    <processing>
        <geometry.remove value="true"/>
    </processing>

    <tls_building>
        <tls.discard-simple value="true"/>
        <tls.default-type value="actuated"/>
    </tls_building>

    <report>
        <aggregate-warnings value="5"/>
    </report>

</configuration>
-->

<net version="1.9" junctionCornerDetail="5" limitTurnSpeed="5.50" xmlns:xsi="http://www.w3.org/2001/XMLSchema-instance" xsi:noNamespaceSchemaLocation="http://sumo.dlr.de/xsd/net_file.xsd">

    <location netOffset="-586713.45,-4512183.20" convBoundary="0.00,0.00,2944.23,5037.30" origBoundary="-73.972729,40.756038,-73.937255,40.801119" projParameter="+proj=utm +zone=18 +ellps=WGS84 +datum=WGS84 +units=m +no_defs"/>

    <type id="highway.bridleway" priority="1" numLanes="1" speed="2.78" allow="pedestrian" oneway="1" width="2.00"/>
    <type id="highway.bus_guideway" priority="1" numLanes="1" speed="27.78" allow="bus" oneway="1"/>
    <type id="highway.cycleway" priority="1" numLanes="1" speed="8.33" allow="bicycle" oneway="0" width="1.00"/>
    <type id="highway.footway" priority="1" numLanes="1" speed="2.78" allow="pedestrian" oneway="1" width="2.00"/>
    <type id="highway.ford" priority="1" numLanes="1" speed="2.78" allow="army" oneway="0"/>
    <type id="highway.living_street" priority="2" numLanes="1" speed="2.78" disallow="tram rail_urban rail rail_electric rail_fast ship" oneway="0"/>
    <type id="highway.motorway" priority="14" numLanes="2" speed="39.44" allow="private emergency authority army vip passenger hov taxi bus coach delivery truck trailer motorcycle evehicle custom1 custom2" oneway="1"/>
    <type id="highway.motorway_link" priority="9" numLanes="1" speed="22.22" allow="private emergency authority army vip passenger hov taxi bus coach delivery truck trailer motorcycle evehicle custom1 custom2" oneway="1"/>
    <type id="highway.path" priority="1" numLanes="1" speed="2.78" allow="pedestrian bicycle" oneway="0" width="2.00"/>
    <type id="highway.pedestrian" priority="1" numLanes="1" speed="2.78" allow="pedestrian" oneway="1" width="2.00"/>
    <type id="highway.primary" priority="12" numLanes="2" speed="27.78" disallow="tram rail_urban rail rail_electric rail_fast ship" oneway="0"/>
    <type id="highway.primary_link" priority="7" numLanes="1" speed="22.22" disallow="tram rail_urban rail rail_electric rail_fast ship" oneway="0"/>
    <type id="highway.raceway" priority="15" numLanes="2" speed="83.33" allow="vip" oneway="0"/>
    <type id="highway.residential" priority="3" numLanes="1" speed="13.89" disallow="tram rail_urban rail rail_electric rail_fast ship" oneway="0"/>
    <type id="highway.secondary" priority="11" numLanes="1" speed="27.78" disallow="tram rail_urban rail rail_electric rail_fast ship" oneway="0"/>
    <type id="highway.secondary_link" priority="6" numLanes="1" speed="22.22" disallow="tram rail_urban rail rail_electric rail_fast ship" oneway="0"/>
    <type id="highway.service" priority="1" numLanes="1" speed="5.56" allow="pedestrian delivery bicycle" oneway="0"/>
    <type id="highway.stairs" priority="1" numLanes="1" speed="1.39" allow="pedestrian" oneway="1" width="2.00"/>
    <type id="highway.step" priority="1" numLanes="1" speed="1.39" allow="pedestrian" oneway="1" width="2.00"/>
    <type id="highway.steps" priority="1" numLanes="1" speed="1.39" allow="pedestrian" oneway="1" width="2.00"/>
    <type id="highway.tertiary" priority="10" numLanes="1" speed="22.22" disallow="tram rail_urban rail rail_electric rail_fast ship" oneway="0"/>
    <type id="highway.tertiary_link" priority="5" numLanes="1" speed="22.22" disallow="tram rail_urban rail rail_electric rail_fast ship" oneway="0"/>
    <type id="highway.track" priority="1" numLanes="1" speed="5.56" allow="pedestrian motorcycle moped bicycle" oneway="0"/>
    <type id="highway.trunk" priority="13" numLanes="2" speed="27.78" disallow="pedestrian bicycle tram rail_urban rail rail_electric rail_fast ship" oneway="0"/>
    <type id="highway.trunk_link" priority="8" numLanes="1" speed="22.22" disallow="pedestrian bicycle tram rail_urban rail rail_electric rail_fast ship" oneway="0"/>
    <type id="highway.unclassified" priority="4" numLanes="1" speed="13.89" disallow="tram rail_urban rail rail_electric rail_fast ship" oneway="0"/>
    <type id="highway.unsurfaced" priority="1" numLanes="1" speed="8.33" disallow="tram rail_urban rail rail_electric rail_fast ship" oneway="0"/>
    <type id="railway.highspeed" priority="21" numLanes="1" speed="69.44" allow="rail_fast" oneway="1"/>
    <type id="railway.light_rail" priority="19" numLanes="1" speed="27.78" allow="rail_urban" oneway="1"/>
    <type id="railway.preserved" priority="16" numLanes="1" speed="27.78" allow="rail" oneway="1"/>
    <type id="railway.rail" priority="20" numLanes="1" speed="44.44" allow="rail" oneway="1"/>
    <type id="railway.subway" priority="18" numLanes="1" speed="27.78" allow="rail_urban" oneway="1"/>
    <type id="railway.tram" priority="17" numLanes="1" speed="13.89" allow="tram" oneway="1"/>

    <edge id=":42447192_0" function="internal">
        <lane id=":42447192_0_0" index="0" disallow="tram rail_urban rail rail_electric rail_fast ship" speed="6.20" length="7.87" shape="2378.07,4407.85 2376.78,4406.19 2375.24,4405.33 2373.43,4405.27 2371.36,4406.00"/>
    </edge>
    <edge id=":42447192_1" function="internal">
        <lane id=":42447192_1_0" index="0" disallow="tram rail_urban rail rail_electric rail_fast ship" speed="11.18" length="10.04" shape="2378.07,4407.85 2373.26,4398.98"/>
        <lane id=":42447192_1_1" index="1" disallow="tram rail_urban rail rail_electric rail_fast ship" speed="11.18" length="10.04" shape="2380.86,4406.28 2376.09,4397.49"/>
    </edge>
    <edge id=":42447192_3" function="internal">
        <lane id=":42447192_3_0" index="0" disallow="tram rail_urban rail rail_electric rail_fast ship" speed="13.89" length="12.68" shape="2382.56,4400.05 2371.36,4406.00"/>
    </edge>
    <edge id=":42447192_4" function="internal">
        <lane id=":42447192_4_0" index="0" disallow="tram rail_urban rail rail_electric rail_fast ship" speed="6.11" length="7.95" shape="2382.56,4400.05 2380.67,4400.71 2378.95,4400.50 2377.43,4399.43 2376.09,4397.49"/>
    </edge>
    <edge id=":42447196_0" function="internal">
        <lane id=":42447196_0_0" index="0" disallow="tram rail_urban rail rail_electric rail_fast ship" speed="11.18" length="10.76" shape="2415.91,4478.23 2410.85,4468.74"/>
        <lane id=":42447196_0_1" index="1" disallow="tram rail_urban rail rail_electric rail_fast ship" speed="11.18" length="10.76" shape="2418.74,4476.73 2413.68,4467.24"/>
    </edge>
    <edge id=":42447196_2" function="internal">
        <lane id=":42447196_2_0" index="0" disallow="tram rail_urban rail rail_electric rail_fast ship" speed="5.51" length="6.19" shape="2418.74,4476.73 2418.35,4475.40 2418.64,4474.14 2419.62,4472.97 2421.28,4471.88"/>
    </edge>
    <edge id=":42447196_3" function="internal">
        <lane id=":42447196_3_0" index="0" disallow="tram rail_urban rail rail_electric rail_fast ship" speed="5.91" length="7.45" shape="2408.50,4474.80 2410.31,4473.60 2411.30,4472.19 2411.48,4470.57 2410.85,4468.74"/>
    </edge>
    <edge id=":42447196_4" function="internal">
        <lane id=":42447196_4_0" index="0" disallow="tram rail_urban rail rail_electric rail_fast ship" speed="13.89" length="12.71" shape="2408.50,4474.80 2419.79,4469.05"/>
        <lane id=":42447196_4_1" index="1" disallow="tram rail_urban rail rail_electric rail_fast ship" speed="13.89" length="12.71" shape="2409.92,4477.67 2421.28,4471.88"/>
    </edge>
    <edge id=":42449422_0" function="internal">
        <lane id=":42449422_0_0" index="0" disallow="tram rail_urban rail rail_electric rail_fast ship" speed="7.72" length="13.16" shape="2550.07,4394.50 2551.97,4396.75 2554.54,4397.71 2557.77,4397.37 2561.66,4395.73"/>
    </edge>
    <edge id=":42449422_1" function="internal">
        <lane id=":42449422_1_0" index="0" disallow="tram rail_urban rail rail_electric rail_fast ship" speed="27.78" length="13.49" shape="2550.07,4394.50 2552.57,4397.55 2555.18,4398.90 2557.81,4400.25 2560.36,4403.28"/>
        <lane id=":42449422_1_1" index="1" disallow="tram rail_urban rail rail_electric rail_fast ship" speed="27.78" length="13.49" shape="2547.26,4396.01 2549.76,4399.08 2552.38,4400.44 2555.01,4401.80 2557.56,4404.83"/>
        <lane id=":42449422_1_2" index="2" disallow="tram rail_urban rail rail_electric rail_fast ship" speed="27.78" length="13.49" shape="2547.26,4396.01 2549.27,4399.23 2550.98,4401.22 2552.70,4403.20 2554.76,4406.39"/>
    </edge>
    <edge id=":42449422_4" function="internal">
        <lane id=":42449422_4_0" index="0" disallow="tram rail_urban rail rail_electric rail_fast ship" speed="13.89" length="22.62" shape="2540.77,4404.39 2561.66,4395.73"/>
    </edge>
    <edge id=":42449422_5" function="internal">
        <lane id=":42449422_5_0" index="0" disallow="tram rail_urban rail rail_electric rail_fast ship" speed="8.08" length="13.64" shape="2542.11,4407.30 2546.83,4405.43 2550.51,4404.66 2553.15,4404.98 2554.76,4406.39"/>
        <lane id=":42449422_5_1" index="1" disallow="tram rail_urban rail rail_electric rail_fast ship" speed="7.28" length="10.89" shape="2542.11,4407.30 2545.56,4406.03 2548.35,4405.72 2550.49,4406.36 2551.97,4407.95"/>
        <lane id=":42449422_5_2" index="2" disallow="tram rail_urban rail rail_electric rail_fast ship" speed="6.44" length="8.30" shape="2542.11,4407.30 2544.29,4406.63 2546.20,4406.78 2547.82,4407.74 2549.17,4409.50"/>
    </edge>
    <edge id=":42450066_0" function="internal">
        <lane id=":42450066_0_0" index="0" disallow="tram rail_urban rail rail_electric rail_fast ship" speed="6.51" length="9.03" shape="2519.18,4325.39 2517.19,4326.86 2516.15,4328.62 2516.06,4330.66 2516.91,4332.98"/>
    </edge>
    <edge id=":42450066_1" function="internal">
        <lane id=":42450066_1_0" index="0" disallow="tram rail_urban rail rail_electric rail_fast ship" speed="13.89" length="14.40" shape="2519.18,4325.39 2506.51,4332.23"/>
    </edge>
    <edge id=":42450066_2" function="internal">
        <lane id=":42450066_2_0" index="0" disallow="tram rail_urban rail rail_electric rail_fast ship" speed="27.78" length="11.20" shape="2511.60,4323.12 2516.91,4332.98"/>
        <lane id=":42450066_2_1" index="1" disallow="tram rail_urban rail rail_electric rail_fast ship" speed="27.78" length="11.20" shape="2508.78,4324.64 2514.09,4334.50"/>
    </edge>
    <edge id=":42450066_4" function="internal">
        <lane id=":42450066_4_0" index="0" disallow="tram rail_urban rail rail_electric rail_fast ship" speed="6.51" length="9.03" shape="2508.78,4324.64 2509.64,4326.96 2509.54,4329.00 2508.50,4330.76 2506.51,4332.23"/>
    </edge>
    <edge id=":7096519001_0" function="internal">
        <lane id=":7096519001_0_0" index="0" disallow="tram rail_urban rail rail_electric rail_fast ship" speed="11.18" length="7.23" shape="2419.41,4484.79 2416.01,4478.41"/>
        <lane id=":7096519001_0_1" index="1" disallow="tram rail_urban rail rail_electric rail_fast ship" speed="11.18" length="7.23" shape="2422.23,4483.28 2418.83,4476.91"/>
    </edge>
    <edge id=":7096519016_0" function="internal">
        <lane id=":7096519016_0_0" index="0" disallow="tram rail_urban rail rail_electric rail_fast ship" speed="13.89" length="4.00" shape="2419.97,4468.95 2423.49,4467.08"/>
        <lane id=":7096519016_0_1" index="1" disallow="tram rail_urban rail rail_electric rail_fast ship" speed="13.89" length="4.00" shape="2421.46,4471.78 2425.00,4469.90"/>
    </edge>
    <edge id=":7096519025_0" function="internal">
        <lane id=":7096519025_0_0" index="0" disallow="tram rail_urban rail rail_electric rail_fast ship" speed="13.89" length="4.41" shape="2404.36,4476.96 2408.32,4474.89"/>
        <lane id=":7096519025_0_1" index="1" disallow="tram rail_urban rail rail_electric rail_fast ship" speed="13.89" length="4.41" shape="2405.89,4479.77 2409.74,4477.76"/>
    </edge>
    <edge id=":7096519026_0" function="internal">
        <lane id=":7096519026_0_0" index="0" disallow="tram rail_urban rail rail_electric rail_fast ship" speed="11.18" length="3.75" shape="2410.76,4468.57 2408.99,4465.27"/>
        <lane id=":7096519026_0_1" index="1" disallow="tram rail_urban rail rail_electric rail_fast ship" speed="11.18" length="3.75" shape="2413.58,4467.06 2411.81,4463.75"/>
    </edge>
    <edge id=":7811793753_0" function="internal">
        <lane id=":7811793753_0_0" index="0" disallow="tram rail_urban rail rail_electric rail_fast ship" speed="13.89" length="4.09" shape="2386.32,4397.99 2382.74,4399.96"/>
    </edge>
    <edge id=":7811793754_0" function="internal">
        <lane id=":7811793754_0_0" index="0" disallow="tram rail_urban rail rail_electric rail_fast ship" speed="11.18" length="4.92" shape="2373.20,4398.87 2370.89,4394.54"/>
        <lane id=":7811793754_0_1" index="1" disallow="tram rail_urban rail rail_electric rail_fast ship" speed="11.18" length="4.92" shape="2376.03,4397.38 2373.71,4393.02"/>
    </edge>
    <edge id=":7811793774_0" function="internal">
        <lane id=":7811793774_0_0" index="0" disallow="tram rail_urban rail rail_electric rail_fast ship" speed="11.18" length="4.23" shape="2380.18,4411.71 2378.17,4408.02"/>
        <lane id=":7811793774_0_1" index="1" disallow="tram rail_urban rail rail_electric rail_fast ship" speed="11.18" length="4.23" shape="2383.00,4410.19 2380.95,4406.46"/>
    </edge>
    <edge id=":7811793776_0" function="internal">
        <lane id=":7811793776_0_0" index="0" disallow="tram rail_urban rail rail_electric rail_fast ship" speed="13.89" length="4.50" shape="2371.19,4406.09 2367.21,4408.19"/>
    </edge>
    <edge id=":7924346692_0" function="internal">
        <lane id=":7924346692_0_0" index="0" disallow="tram rail_urban rail rail_electric rail_fast ship" speed="27.78" length="4.23" shape="2547.97,4390.60 2549.98,4394.32"/>
        <lane id=":7924346692_0_1" index="1" disallow="tram rail_urban rail rail_electric rail_fast ship" speed="27.78" length="4.23" shape="2545.15,4392.12 2547.16,4395.84"/>
    </edge>
    <edge id=":7924346695_0" function="internal">
        <lane id=":7924346695_0_0" index="0" disallow="tram rail_urban rail rail_electric rail_fast ship" speed="27.78" length="7.52" shape="2560.45,4403.45 2564.11,4410.14"/>
        <lane id=":7924346695_0_1" index="1" disallow="tram rail_urban rail rail_electric rail_fast ship" speed="27.78" length="7.52" shape="2557.66,4405.01 2561.29,4411.66"/>
        <lane id=":7924346695_0_2" index="2" disallow="tram rail_urban rail rail_electric rail_fast ship" speed="27.78" length="7.52" shape="2554.86,4406.57 2558.47,4413.17"/>
        <lane id=":7924346695_0_3" index="3" disallow="tram rail_urban rail rail_electric rail_fast ship" speed="27.78" length="7.52" shape="2552.06,4408.12 2555.65,4414.68"/>
        <lane id=":7924346695_0_4" index="4" disallow="tram rail_urban rail rail_electric rail_fast ship" speed="27.78" length="7.52" shape="2549.27,4409.68 2552.83,4416.19"/>
    </edge>
    <edge id=":7924346824_0" function="internal">
        <lane id=":7924346824_0_0" index="0" disallow="tram rail_urban rail rail_electric rail_fast ship" speed="13.89" length="4.22" shape="2561.84,4395.64 2565.55,4393.63"/>
    </edge>
    <edge id=":7924346879_0" function="internal">
        <lane id=":7924346879_0_0" index="0" disallow="tram rail_urban rail rail_electric rail_fast ship" speed="13.89" length="4.82" shape="2536.04,4406.75 2540.43,4404.55"/>
        <lane id=":7924346879_0_1" index="1" disallow="tram rail_urban rail rail_electric rail_fast ship" speed="13.89" length="4.82" shape="2537.55,4409.57 2541.77,4407.45"/>
    </edge>

    <edge id="1032460514#0" from="596776546" to="7096519025" priority="3" type="highway.residential" spreadType="center" shape="2266.63,4553.62 2288.79,4541.72 2294.36,4538.78 2407.39,4477.13">
        <lane id="1032460514#0_0" index="0" disallow="tram rail_urban rail rail_electric rail_fast ship" speed="13.89" length="157.62" shape="2265.88,4552.21 2288.03,4540.31 2293.60,4537.37 2404.36,4476.96"/>
        <lane id="1032460514#0_1" index="1" disallow="tram rail_urban rail rail_electric rail_fast ship" speed="13.89" length="157.62" shape="2267.39,4555.03 2289.54,4543.13 2295.12,4540.19 2405.89,4479.77"/>
    </edge>
    <edge id="1032460514#2" from="7096519025" to="42447196" priority="3" type="highway.residential" spreadType="center">
        <lane id="1032460514#2_0" index="0" disallow="tram rail_urban rail rail_electric rail_fast ship" speed="13.89" length="0.20" shape="2408.32,4474.89 2408.50,4474.80"/>
        <lane id="1032460514#2_1" index="1" disallow="tram rail_urban rail rail_electric rail_fast ship" speed="13.89" length="0.20" shape="2409.74,4477.76 2409.92,4477.67"/>
    </edge>
    <edge id="1032460515#0" from="42447196" to="7096519026" priority="11" type="highway.secondary" spreadType="center">
        <lane id="1032460515#0_0" index="0" disallow="tram rail_urban rail rail_electric rail_fast ship" speed="11.18" length="0.20" shape="2410.85,4468.74 2410.76,4468.57"/>
        <lane id="1032460515#0_1" index="1" disallow="tram rail_urban rail rail_electric rail_fast ship" speed="11.18" length="0.20" shape="2413.68,4467.24 2413.58,4467.06"/>
    </edge>
    <edge id="1032460515#1" from="7096519026" to="7811793774" priority="11" type="highway.secondary" spreadType="center">
        <lane id="1032460515#1_0" index="0" disallow="tram rail_urban rail rail_electric rail_fast ship" speed="11.18" length="60.81" shape="2408.99,4465.27 2380.18,4411.71"/>
        <lane id="1032460515#1_1" index="1" disallow="tram rail_urban rail rail_electric rail_fast ship" speed="11.18" length="60.81" shape="2411.81,4463.75 2383.00,4410.19"/>
    </edge>
    <edge id="1032460515#2" from="7811793774" to="42447192" priority="11" type="highway.secondary" spreadType="center">
        <lane id="1032460515#2_0" index="0" disallow="tram rail_urban rail rail_electric rail_fast ship" speed="11.18" length="0.20" shape="2378.17,4408.02 2378.07,4407.85"/>
        <lane id="1032460515#2_1" index="1" disallow="tram rail_urban rail rail_electric rail_fast ship" speed="11.18" length="0.20" shape="2380.95,4406.46 2380.86,4406.28"/>
    </edge>
    <edge id="1032460515#3" from="42447192" to="7811793754" priority="11" type="highway.secondary" spreadType="center">
        <lane id="1032460515#3_0" index="0" disallow="tram rail_urban rail rail_electric rail_fast ship" speed="11.18" length="0.13" shape="2373.26,4398.98 2373.20,4398.87"/>
        <lane id="1032460515#3_1" index="1" disallow="tram rail_urban rail rail_electric rail_fast ship" speed="11.18" length="0.13" shape="2376.09,4397.49 2376.03,4397.38"/>
    </edge>
    <edge id="1032460515#4" from="7811793754" to="42447182" priority="11" type="highway.secondary" spreadType="center" shape="2373.49,4395.99 2342.53,4338.54 2338.47,4330.87 2335.83,4326.03 2314.46,4286.07 2304.84,4268.08 2301.44,4261.89 2298.18,4255.85 2267.03,4198.53 2263.40,4191.68 2260.05,4185.51 2229.04,4127.94 2225.19,4120.77 2222.26,4115.38 2190.16,4056.59 2184.70,4045.83">
        <lane id="1032460515#4_0" index="0" disallow="tram rail_urban rail rail_electric rail_fast ship" speed="11.18" length="395.31" shape="2370.89,4394.54 2341.13,4339.30 2337.06,4331.63 2334.43,4326.79 2313.05,4286.83 2303.43,4268.84 2300.03,4262.66 2296.77,4256.61 2265.62,4199.29 2261.99,4192.43 2258.64,4186.27 2227.63,4128.69 2223.78,4121.53 2220.86,4116.14 2188.75,4057.34 2183.27,4046.56"/>
        <lane id="1032460515#4_1" index="1" disallow="tram rail_urban rail rail_electric rail_fast ship" speed="11.18" length="395.31" shape="2373.71,4393.02 2343.94,4337.78 2339.88,4330.12 2337.24,4325.27 2315.87,4285.32 2306.25,4267.32 2302.84,4261.13 2299.58,4255.08 2268.44,4197.76 2264.81,4190.92 2261.46,4184.75 2230.45,4127.18 2226.59,4120.01 2223.67,4114.61 2191.58,4055.84 2186.13,4045.11"/>
    </edge>
    <edge id="1032460516#0" from="42447196" to="7096519016" priority="3" type="highway.residential" spreadType="center">
        <lane id="1032460516#0_0" index="0" disallow="tram rail_urban rail rail_electric rail_fast ship" speed="13.89" length="0.20" shape="2419.79,4469.05 2419.97,4468.95"/>
        <lane id="1032460516#0_1" index="1" disallow="tram rail_urban rail rail_electric rail_fast ship" speed="13.89" length="0.20" shape="2421.28,4471.88 2421.46,4471.78"/>
    </edge>
    <edge id="1032460516#1" from="7096519016" to="7924346879" priority="3" type="highway.residential" spreadType="center">
        <lane id="1032460516#1_0" index="0" disallow="tram rail_urban rail rail_electric rail_fast ship" speed="13.89" length="127.70" shape="2423.49,4467.08 2536.04,4406.75"/>
        <lane id="1032460516#1_1" index="1" disallow="tram rail_urban rail rail_electric rail_fast ship" speed="13.89" length="127.70" shape="2425.00,4469.90 2537.55,4409.57"/>
    </edge>
    <edge id="1032460516#2" from="7924346879" to="42449422" priority="3" type="highway.residential" spreadType="center">
        <lane id="1032460516#2_0" index="0" disallow="tram rail_urban rail rail_electric rail_fast ship" speed="13.89" length="0.37" shape="2540.43,4404.55 2540.77,4404.39"/>
        <lane id="1032460516#2_1" index="1" disallow="tram rail_urban rail rail_electric rail_fast ship" speed="13.89" length="0.37" shape="2541.77,4407.45 2542.11,4407.30"/>
    </edge>
    <edge id="1032460517#0" from="42449422" to="7924346695" priority="12" type="highway.primary" spreadType="center">
        <lane id="1032460517#0_0" index="0" disallow="tram rail_urban rail rail_electric rail_fast ship" speed="27.78" length="0.20" shape="2560.36,4403.28 2560.45,4403.45"/>
        <lane id="1032460517#0_1" index="1" disallow="tram rail_urban rail rail_electric rail_fast ship" speed="27.78" length="0.20" shape="2557.56,4404.83 2557.66,4405.01"/>
        <lane id="1032460517#0_2" index="2" disallow="tram rail_urban rail rail_electric rail_fast ship" speed="27.78" length="0.20" shape="2554.76,4406.39 2554.86,4406.57"/>
        <lane id="1032460517#0_3" index="3" disallow="tram rail_urban rail rail_electric rail_fast ship" speed="27.78" length="0.20" shape="2551.97,4407.95 2552.06,4408.12"/>
        <lane id="1032460517#0_4" index="4" disallow="tram rail_urban rail rail_electric rail_fast ship" speed="27.78" length="0.20" shape="2549.17,4409.50 2549.27,4409.68"/>
    </edge>
    <edge id="1032460517#1" from="7924346695" to="42435396" priority="12" type="highway.primary" spreadType="center" shape="2556.60,4409.69 2586.56,4465.54 2593.67,4478.74 2607.90,4505.13 2625.66,4537.98 2659.38,4601.14 2663.65,4608.95">
        <lane id="1032460517#1_0" index="0" disallow="tram rail_urban rail rail_electric rail_fast ship" speed="27.78" length="222.25" shape="2564.11,4410.14 2592.20,4462.51 2599.31,4475.70 2613.53,4502.09 2631.30,4534.95 2665.03,4598.11 2669.27,4605.88"/>
        <lane id="1032460517#1_1" index="1" disallow="tram rail_urban rail rail_electric rail_fast ship" speed="27.78" length="222.25" shape="2561.29,4411.66 2589.38,4464.02 2596.49,4477.22 2610.72,4503.61 2628.48,4536.46 2662.20,4599.63 2666.46,4607.41"/>
        <lane id="1032460517#1_2" index="2" disallow="tram rail_urban rail rail_electric rail_fast ship" speed="27.78" length="222.25" shape="2558.47,4413.17 2586.56,4465.54 2593.67,4478.74 2607.90,4505.13 2625.66,4537.98 2659.38,4601.14 2663.65,4608.95"/>
        <lane id="1032460517#1_3" index="3" disallow="tram rail_urban rail rail_electric rail_fast ship" speed="27.78" length="222.25" shape="2555.65,4414.68 2583.74,4467.05 2590.86,4480.25 2605.09,4506.65 2622.84,4539.49 2656.56,4602.65 2660.84,4610.48"/>
        <lane id="1032460517#1_4" index="4" disallow="tram rail_urban rail rail_electric rail_fast ship" speed="27.78" length="222.25" shape="2552.83,4416.19 2580.92,4468.57 2588.04,4481.77 2602.27,4508.17 2620.02,4541.01 2653.74,4604.16 2658.03,4612.02"/>
    </edge>
    <edge id="5671702#0" from="42449422" to="7924346824" priority="3" type="highway.residential" spreadType="center">
        <lane id="5671702#0_0" index="0" disallow="tram rail_urban rail rail_electric rail_fast ship" speed="13.89" length="0.20" shape="2561.66,4395.73 2561.84,4395.64"/>
    </edge>
    <edge id="5671702#1" from="7924346824" to="42449427" priority="3" type="highway.residential" spreadType="center" shape="2563.34,4394.82 2730.75,4304.30 2742.06,4298.22 2749.23,4294.34 2752.24,4292.72 2796.59,4268.74 2843.71,4243.28 2931.34,4195.91 2934.16,4194.38 2944.23,4189.13">
        <lane id="5671702#1_0" index="0" disallow="tram rail_urban rail rail_electric rail_fast ship" speed="13.89" length="430.37" shape="2565.55,4393.63 2730.75,4304.30 2742.06,4298.22 2749.23,4294.34 2752.24,4292.72 2796.59,4268.74 2843.71,4243.28 2931.34,4195.91 2934.16,4194.38 2944.23,4189.13"/>
    </edge>
    <edge id="584971412#0" from="42447199" to="7096519001" priority="11" type="highway.secondary" spreadType="center" shape="2569.20,4758.56 2540.58,4706.15 2531.69,4689.86 2527.91,4682.91 2524.17,4676.10 2493.38,4618.56 2455.66,4548.83 2450.83,4539.90 2419.63,4481.82">
        <lane id="584971412#0_0" index="0" disallow="tram rail_urban rail rail_electric rail_fast ship" speed="11.18" length="312.06" shape="2567.80,4759.32 2539.18,4706.92 2530.28,4690.62 2526.51,4683.67 2522.77,4676.86 2491.97,4619.32 2454.25,4549.59 2449.43,4540.66 2419.41,4484.79"/>
        <lane id="584971412#0_1" index="1" disallow="tram rail_urban rail rail_electric rail_fast ship" speed="11.18" length="312.06" shape="2570.61,4757.79 2541.99,4705.38 2533.09,4689.09 2529.32,4682.14 2525.58,4675.34 2494.79,4617.80 2457.07,4548.07 2452.24,4539.14 2422.23,4483.28"/>
    </edge>
    <edge id="584971412#3" from="7096519001" to="42447196" priority="11" type="highway.secondary" spreadType="center">
        <lane id="584971412#3_0" index="0" disallow="tram rail_urban rail rail_electric rail_fast ship" speed="11.18" length="0.20" shape="2416.01,4478.41 2415.91,4478.23"/>
        <lane id="584971412#3_1" index="1" disallow="tram rail_urban rail rail_electric rail_fast ship" speed="11.18" length="0.20" shape="2418.83,4476.91 2418.74,4476.73"/>
    </edge>
    <edge id="634469643#0" from="42456110" to="42450066" priority="3" type="highway.residential" spreadType="center" shape="2905.59,4117.40 2895.33,4122.46 2892.42,4124.04 2834.52,4155.27 2713.14,4220.76 2703.03,4226.21 2692.70,4231.78 2619.80,4271.11 2524.16,4322.71 2512.85,4328.81">
        <lane id="634469643#0_0" index="0" disallow="tram rail_urban rail rail_electric rail_fast ship" speed="13.89" length="438.84" shape="2905.59,4117.40 2895.33,4122.46 2892.42,4124.04 2834.52,4155.27 2713.14,4220.76 2703.03,4226.21 2692.70,4231.78 2619.80,4271.11 2524.16,4322.71 2519.18,4325.39"/>
    </edge>
    <edge id="634469643#5" from="42450066" to="7811793753" priority="3" type="highway.residential" spreadType="center" shape="2512.85,4328.81 2500.91,4335.25 2384.14,4399.19">
        <lane id="634469643#5_0" index="0" disallow="tram rail_urban rail rail_electric rail_fast ship" speed="13.89" length="137.00" shape="2506.51,4332.23 2500.91,4335.25 2386.32,4397.99"/>
    </edge>
    <edge id="634469643#6" from="7811793753" to="42447192" priority="3" type="highway.residential" spreadType="center">
        <lane id="634469643#6_0" index="0" disallow="tram rail_urban rail rail_electric rail_fast ship" speed="13.89" length="0.20" shape="2382.74,4399.96 2382.56,4400.05"/>
    </edge>
    <edge id="634469643#7" from="42447192" to="7811793776" priority="3" type="highway.residential" spreadType="center">
        <lane id="634469643#7_0" index="0" disallow="tram rail_urban rail rail_electric rail_fast ship" speed="13.89" length="0.20" shape="2371.36,4406.00 2371.19,4406.09"/>
    </edge>
    <edge id="634469643#8" from="7811793776" to="42446721" priority="3" type="highway.residential" spreadType="center" shape="2369.44,4406.99 2256.53,4468.00 2251.10,4471.07 2228.73,4483.32 2222.92,4486.38 2112.01,4545.47 2102.73,4550.38 2092.86,4555.61 2028.59,4590.09 1975.22,4618.89 1964.64,4624.59">
        <lane id="634469643#8_0" index="0" disallow="tram rail_urban rail rail_electric rail_fast ship" speed="13.89" length="457.04" shape="2367.21,4408.19 2256.53,4468.00 2251.10,4471.07 2228.73,4483.32 2222.92,4486.38 2112.01,4545.47 2102.73,4550.38 2092.86,4555.61 2028.59,4590.09 1975.22,4618.89 1964.64,4624.59"/>
    </edge>
    <edge id="652023437#0" from="42450052" to="42450066" priority="12" type="highway.primary" spreadType="center" shape="2090.68,3545.82 2094.42,3552.77 2121.42,3602.82 2125.37,3610.19 2128.92,3616.45 2132.47,3622.97 2161.84,3677.79 2166.00,3685.17 2170.18,3693.27 2201.45,3751.25 2204.19,3756.34 2208.27,3764.19 2237.76,3818.59 2241.30,3825.04 2245.70,3833.31 2276.91,3891.22 2279.81,3896.58 2283.49,3903.40 2314.76,3961.40 2320.75,3972.52 2326.38,3982.97 2358.26,4042.11 2361.38,4047.87 2365.11,4054.65 2390.28,4100.45 2396.34,4112.40 2399.22,4118.07 2402.14,4123.50 2432.38,4179.81 2436.80,4187.91 2440.52,4194.89 2453.76,4219.23 2472.22,4253.47 2475.01,4258.64 2478.51,4265.12 2509.60,4322.79 2512.85,4328.81">